/*---------------------------------------------------------------------------*\
  =========                 |
  \\      /  F ield         | OpenFOAM: The Open Source CFD Toolbox
   \\    /   O peration     | Website:  https://openfoam.org
    \\  /    A nd           | Version:  11
     \\/     M anipulation  |
\*---------------------------------------------------------------------------*/
Build  : 11-d5b4d966c3c5
Exec   : foamRun
Date   : Dec 28 2023
Time   : 00:52:25
Host   : "ubuntu-linux-22-04-02-desktop"
PID    : 7583
I/O    : uncollated
Case   : /home/parallels/OpenFOAM/parallels-11/run/multiphase/pipe_intake_RANS_v2/system
nProcs : 1
sigFpe : Enabling floating point exception trapping (FOAM_SIGFPE).
fileModificationChecking : Monitoring run-time modified files using timeStampMaster (fileModificationSkew 10)
allowSystemOperations : Allowing user-supplied system call operations

// * * * * * * * * * * * * * * * * * * * * * * * * * * * * * * * * * * * * * //
Create time

